[Format]      =  1
[Precision]   =  1e-008
[MinAngle]    =  30
[DoSmartMesh] =  1
[Depth]       =  70
[LengthUnits] =  millimeters
[ProblemType] =  planar
[Coordinates] =  cartesian
[PrevSoln] = ""
[dT] = 0
[Comment]     =  "Add comments here."
[PointProps]   = 0
[BdryProps]   = 0
[BlockProps]  = 0
[ConductorProps]  = 0
[NumPoints] = 520
2.9390598731000002	48.640933290500001	0	0	0
5.0488785843999997	64.666597444399997	0	0	0
-5.0488785843999997	64.666597444399997	0	0	0
-2.9390598731000002	48.640933290500001	0	0	0
-1.5	47	0	0	0
-1.5	44.974993051699997	0	0	0
-10.1914960157	43.830735893499998	0	0	0
-10.715606380400001	45.786742403200002	0	0	0
-9.7502860706999996	47.744218349900002	0	0	0
-11.860104782100001	63.7698825039	0	0	0
-21.613789219099999	61.156390635699999	0	0	0
-15.428113743600001	46.222849010200001	0	0	0
-13.613383859300001	45.010285267900002	0	0	0
-13.0892734946	43.054278758099997	0	0	0
-21.1884584202	39.699486517799997	0	0	0
-22.200961894300001	41.4531939779	0	0	0
-21.775166131900001	43.5938138299	0	0	0
-27.960841607500001	58.527355455399999	0	0	0
-36.705755836999998	53.478476870999998	0	0	0
-26.865767158600001	40.6547539568	0	0	0
-24.799038105699999	39.9531939779	0	0	0
-23.7865346315	38.199486517799997	0	0	0
-30.741462398900001	32.862782742500002	0	0	0
-32.173358544000003	34.294678887499998	0	0	0
-32.316104606400003	36.472562939500001	0	0	0
-42.156093284800001	49.296285853699999	0	0	0
-49.296285853699999	42.156093284800001	0	0	0
-36.472562939500001	32.316104606400003	0	0	0
-34.294678887499998	32.173358544000003	0	0	0
-32.862782742500002	30.741462398900001	0	0	0
-38.199486517799997	23.7865346315	0	0	0
-39.9531939779	24.799038105699999	0	0	0
-40.6547539568	26.865767158600001	0	0	0
-53.478476870999998	36.705755836999998	0	0	0
-58.527355455399999	27.960841607500001	0	0	0
-43.5938138299	21.775166131900001	0	0	0
-41.4531939779	22.200961894300001	0	0	0
-39.699486517799997	21.1884584202	0	0	0
-43.054278758099997	13.0892734946	0	0	0
-45.010285267900002	13.613383859300001	0	0	0
-46.222849010200001	15.428113743600001	0	0	0
-61.156390635699999	21.613789219099999	0	0	0
-63.7698825039	11.860104782100001	0	0	0
-47.744218349900002	9.7502860706999996	0	0	0
-45.786742403200002	10.715606380400001	0	0	0
-43.830735893499998	10.1914960157	0	0	0
-44.974993051699997	1.5	0	0	0
-47	1.5	0	0	0
-48.640933290500001	2.9390598731000002	0	0	0
-64.666597444399997	5.0488785843999997	0	0	0
-64.666597444399997	-5.0488785843999997	0	0	0
-48.640933290500001	-2.9390598731000002	0	0	0
-47	-1.5	0	0	0
-44.974993051699997	-1.5	0	0	0
-43.830735893499998	-10.1914960157	0	0	0
-45.786742403200002	-10.715606380400001	0	0	0
-47.744218349900002	-9.7502860706999996	0	0	0
-63.7698825039	-11.860104782100001	0	0	0
-61.156390635699999	-21.613789219099999	0	0	0
-46.222849010200001	-15.428113743600001	0	0	0
-45.010285267900002	-13.613383859300001	0	0	0
-43.054278758099997	-13.0892734946	0	0	0
-39.699486517799997	-21.1884584202	0	0	0
-41.4531939779	-22.200961894300001	0	0	0
-43.5938138299	-21.775166131900001	0	0	0
-58.527355455399999	-27.960841607500001	0	0	0
-53.478476870999998	-36.705755836999998	0	0	0
-40.6547539568	-26.865767158600001	0	0	0
-39.9531939779	-24.799038105699999	0	0	0
-38.199486517799997	-23.7865346315	0	0	0
-32.862782742500002	-30.741462398900001	0	0	0
-34.294678887499998	-32.173358544000003	0	0	0
-36.472562939500001	-32.316104606400003	0	0	0
-49.296285853699999	-42.156093284800001	0	0	0
-42.156093284800001	-49.296285853699999	0	0	0
-32.316104606400003	-36.472562939500001	0	0	0
-32.173358544000003	-34.294678887499998	0	0	0
-30.741462398900001	-32.862782742500002	0	0	0
-23.7865346315	-38.199486517799997	0	0	0
-24.799038105699999	-39.9531939779	0	0	0
-26.865767158600001	-40.6547539568	0	0	0
-36.705755836999998	-53.478476870999998	0	0	0
-27.960841607500001	-58.527355455399999	0	0	0
-21.775166131900001	-43.5938138299	0	0	0
-22.200961894300001	-41.4531939779	0	0	0
-21.1884584202	-39.699486517799997	0	0	0
-13.0892734946	-43.054278758099997	0	0	0
-13.613383859300001	-45.010285267900002	0	0	0
-15.428113743600001	-46.222849010200001	0	0	0
-21.613789219099999	-61.156390635699999	0	0	0
-11.860104782100001	-63.7698825039	0	0	0
-9.7502860706999996	-47.744218349900002	0	0	0
-10.715606380400001	-45.786742403200002	0	0	0
-10.1914960157	-43.830735893499998	0	0	0
-1.5	-44.974993051699997	0	0	0
-1.5	-47	0	0	0
-2.9390598731000002	-48.640933290500001	0	0	0
-5.0488785843999997	-64.666597444399997	0	0	0
5.0488785843999997	-64.666597444399997	0	0	0
2.9390598731000002	-48.640933290500001	0	0	0
1.5	-47	0	0	0
1.5	-44.974993051699997	0	0	0
10.1914960157	-43.830735893499998	0	0	0
10.715606380400001	-45.786742403200002	0	0	0
9.7502860706999996	-47.744218349900002	0	0	0
11.860104782100001	-63.7698825039	0	0	0
21.613789219099999	-61.156390635699999	0	0	0
15.428113743600001	-46.222849010200001	0	0	0
13.613383859300001	-45.010285267900002	0	0	0
13.0892734946	-43.054278758099997	0	0	0
21.1884584202	-39.699486517799997	0	0	0
22.200961894300001	-41.4531939779	0	0	0
21.775166131900001	-43.5938138299	0	0	0
27.960841607500001	-58.527355455399999	0	0	0
36.705755836999998	-53.478476870999998	0	0	0
26.865767158600001	-40.6547539568	0	0	0
24.799038105699999	-39.9531939779	0	0	0
23.7865346315	-38.199486517799997	0	0	0
30.741462398900001	-32.862782742500002	0	0	0
32.173358544000003	-34.294678887499998	0	0	0
32.316104606400003	-36.472562939500001	0	0	0
42.156093284800001	-49.296285853699999	0	0	0
49.296285853699999	-42.156093284800001	0	0	0
36.472562939500001	-32.316104606400003	0	0	0
34.294678887499998	-32.173358544000003	0	0	0
32.862782742500002	-30.741462398900001	0	0	0
38.199486517799997	-23.7865346315	0	0	0
39.9531939779	-24.799038105699999	0	0	0
40.6547539568	-26.865767158600001	0	0	0
53.478476870999998	-36.705755836999998	0	0	0
58.527355455399999	-27.960841607500001	0	0	0
43.5938138299	-21.775166131900001	0	0	0
41.4531939779	-22.200961894300001	0	0	0
39.699486517799997	-21.1884584202	0	0	0
43.054278758099997	-13.0892734946	0	0	0
45.010285267900002	-13.613383859300001	0	0	0
46.222849010200001	-15.428113743600001	0	0	0
61.156390635699999	-21.613789219099999	0	0	0
63.7698825039	-11.860104782100001	0	0	0
47.744218349900002	-9.7502860706999996	0	0	0
45.786742403200002	-10.715606380400001	0	0	0
43.830735893499998	-10.1914960157	0	0	0
44.974993051699997	-1.5	0	0	0
47	-1.5	0	0	0
48.640933290500001	-2.9390598731000002	0	0	0
64.666597444399997	-5.0488785843999997	0	0	0
64.666597444399997	5.0488785843999997	0	0	0
48.640933290500001	2.9390598731000002	0	0	0
47	1.5	0	0	0
44.974993051699997	1.5	0	0	0
43.830735893499998	10.1914960157	0	0	0
45.786742403200002	10.715606380400001	0	0	0
47.744218349900002	9.7502860706999996	0	0	0
63.7698825039	11.860104782100001	0	0	0
61.156390635699999	21.613789219099999	0	0	0
46.222849010200001	15.428113743600001	0	0	0
45.010285267900002	13.613383859300001	0	0	0
43.054278758099997	13.0892734946	0	0	0
39.699486517799997	21.1884584202	0	0	0
41.4531939779	22.200961894300001	0	0	0
43.5938138299	21.775166131900001	0	0	0
58.527355455399999	27.960841607500001	0	0	0
53.478476870999998	36.705755836999998	0	0	0
40.6547539568	26.865767158600001	0	0	0
39.9531939779	24.799038105699999	0	0	0
38.199486517799997	23.7865346315	0	0	0
32.862782742500002	30.741462398900001	0	0	0
34.294678887499998	32.173358544000003	0	0	0
36.472562939500001	32.316104606400003	0	0	0
49.296285853699999	42.156093284800001	0	0	0
42.156093284800001	49.296285853699999	0	0	0
32.316104606400003	36.472562939500001	0	0	0
32.173358544000003	34.294678887499998	0	0	0
30.741462398900001	32.862782742500002	0	0	0
23.7865346315	38.199486517799997	0	0	0
24.799038105699999	39.9531939779	0	0	0
26.865767158600001	40.6547539568	0	0	0
36.705755836999998	53.478476870999998	0	0	0
27.960841607500001	58.527355455399999	0	0	0
21.775166131900001	43.5938138299	0	0	0
22.200961894300001	41.4531939779	0	0	0
21.1884584202	39.699486517799997	0	0	0
13.0892734946	43.054278758099997	0	0	0
13.613383859300001	45.010285267900002	0	0	0
15.428113743600001	46.222849010200001	0	0	0
21.613789219099999	61.156390635699999	0	0	0
11.860104782100001	63.7698825039	0	0	0
9.7502860706999996	47.744218349900002	0	0	0
10.715606380400001	45.786742403200002	0	0	0
10.1914960157	43.830735893499998	0	0	0
1.5	44.974993051699997	0	0	0
1.5	47	0	0	0
-37.109223615799998	-23.641182767299998	0	0	0
-32.892266386700001	-20.954684725500002	0	0	0
-32.892266386700001	20.954684725500002	0	0	0
-37.109223615799998	23.641182767299998	0	0	0
23.641182767299998	-37.109223615799998	0	0	0
20.954684725500002	-32.892266386700001	0	0	0
-20.954684725500002	-32.892266386700001	0	0	0
-23.641182767299998	-37.109223615799998	0	0	0
37.109223615799998	23.641182767299998	0	0	0
32.892266386700001	20.954684725500002	0	0	0
32.892266386700001	-20.954684725500002	0	0	0
37.109223615799998	-23.641182767299998	0	0	0
-23.641182767299998	37.109223615799998	0	0	0
-20.954684725500002	32.892266386700001	0	0	0
20.954684725500002	32.892266386700001	0	0	0
23.641182767299998	37.109223615799998	0	0	0
9.6589382242844426	73.366919741666649	0	0	0
-9.6589382242844177	73.366919741666649	0	0	0
-28.318573995018447	68.367085405839575	0	0	0
-45.048345746648046	58.708147181554942	0	0	0
-58.70814718155453	45.048345746647712	0	0	0
-68.367085405838111	28.31857399501785	0	0	0
-73.366919741664063	9.6589382242840927	0	0	0
-73.366919741662926	-9.6589382242839221	0	0	0
-68.36708540583497	-28.318573995016493	0	0	0
-58.708147181550217	-45.048345746644422	0	0	0
-45.048345746643761	-58.708147181549322	0	0	0
-28.318573995015271	-68.367085405831958	0	0	0
-9.6589382242832738	-73.36691974165781	0	0	0
9.6589382242832542	-73.366919741657384	0	0	0
28.318573995014951	-68.367085405831091	0	0	0
45.048345746642951	-58.708147181548298	0	0	0
58.708147181548902	-45.048345746643442	0	0	0
68.367085405833279	-28.318573995015822	0	0	0
73.366919741661036	-9.6589382242837019	0	0	0
73.366919741662272	9.6589382242838262	0	0	0
68.367085405836605	28.318573995017221	0	0	0
58.708147181553478	45.048345746646923	0	0	0
45.048345746647485	58.70814718155421	0	0	0
28.318573995018262	68.36708540583912	0	0	0
2.4684157723714559	47.602199625259175	0	0	0
4.9865849761727885	65.485601946085708	0	0	0
4.6003593695982001	66.210501006742646	0	0	0
3.9553434317216225	66.719031543884782	0	0	0
3.1603269805205865	66.925423669788287	0	0	0
-3.1603269804897778	66.925423669761116	0	0	0
-3.955343431721519	66.719031543884569	0	0	0
-4.6003593695981024	66.210501006742575	0	0	0
-4.9865849761727326	65.485601946085694	0	0	0
-2.4684157723711566	47.602199625259438	0	0	0
-5.873678649902927	44.615018761826143	0	0	0
-9.9360493072326594	46.619067019287947	0	0	0
-12.132249750142952	64.544857331597967	0	0	0
-12.692932720982558	65.145093513051506	0	0	0
-13.447587661774342	65.46935388321657	0	0	0
-14.268932797257198	65.46294796922875	0	0	0
-20.374215697262407	63.827042346657805	0	0	0
-21.088724406898368	63.421917463175014	0	0	0
-21.580144571632793	62.763772274775775	0	0	0
-21.765592177122521	61.963611007946874	0	0	0
-14.704662396390805	45.341320993016737	0	0	0
-17.220754456430793	41.574578963012144	0	0	0
-21.663389046628097	42.458922037609042	0	0	0
-28.424291705549628	59.205487355514627	0	0	0
-29.121222422763807	59.640155553935742	0	0	0
-29.934087879381885	59.758047948762666	0	0	0
-30.725788385500312	59.539280547335622	0	0	0
-36.199635284249851	56.378953566804284	0	0	0
-36.78494366450289	55.802704517040937	0	0	0
-37.089278583978796	55.039796184337426	0	0	0
-37.061310240535988	54.218902379341735	0	0	0
-25.938810578630818	39.990506265237968	0	0	0
-27.394264305394969	35.700900313108889	0	0	0
-31.914404622996884	35.405271685783745	0	0	0
-42.779265154475141	49.831361257703676	0	0	0
-43.564948941418223	50.070839553693169	0	0	0
-44.380629476317779	49.974329801300826	0	0	0
-45.088732271926759	49.558109549311595	0	0	0
-49.558109549341125	45.088732271998943	0	0	0
-49.974329801300875	44.380629476317793	0	0	0
-50.07083955369319	43.564948941418223	0	0	0
-49.831361257703691	42.779265154475134	0	0	0
-35.405271685783745	31.914404622997019	0	0	0
-35.700900313108335	27.394264305394525	0	0	0
-39.99050626523757	25.938810578630953	0	0	0
-54.218902379341714	37.061310240536059	0	0	0
-55.039796184337433	37.089278583978867	0	0	0
-55.802704517040958	36.784943664502926	0	0	0
-56.378953566814957	36.199635284288	0	0	0
-59.539280547292663	30.725788385510182	0	0	0
-59.758047948762552	29.934087879381877	0	0	0
-59.640155553935635	29.121222422763847	0	0	0
-59.205487355514556	28.424291705549699	0	0	0
-42.458922037609113	21.663389046628481	0	0	0
-41.574578963010232	17.220754456430011	0	0	0
-45.341320993016296	14.704662396391099	0	0	0
-61.963611007946874	21.765592177122691	0	0	0
-62.763772274775903	21.58014457163306	0	0	0
-63.421917463175248	21.088724406898578	0	0	0
-63.827042346668797	20.374215697301835	0	0	0
-65.462947969259119	14.268932797315358	0	0	0
-65.469353883216343	13.447587661774387	0	0	0
-65.145093513051307	12.692932720982693	0	0	0
-64.544857331597854	12.132249750143135	0	0	0
-46.619067019288103	9.936049307232981	0	0	0
-44.615018761822853	5.8736786499025033	0	0	0
-47.602199625259175	2.4684157723714568	0	0	0
-65.485601946085708	4.9865849761727894	0	0	0
-66.21050100674266	4.6003593695982108	0	0	0
-66.719031543884782	3.9553434317216221	0	0	0
-66.925423669788287	3.160326980520586	0	0	0
-66.925423669756952	-3.1603269804895473	0	0	0
-66.719031543884569	-3.9553434317215173	0	0	0
-66.210501006742575	-4.6003593695981015	0	0	0
-65.485601946085694	-4.9865849761727317	0	0	0
-47.602199625259438	-2.4684157723711593	0	0	0
-44.615018761821645	-5.8736786499023328	0	0	0
-46.619067019287954	-9.9360493072326754	0	0	0
-64.544857331597967	-12.132249750142948	0	0	0
-65.145093513051506	-12.692932720982554	0	0	0
-65.46935388321657	-13.447587661774341	0	0	0
-65.46294796922875	-14.268932797257198	0	0	0
-63.827042346652696	-20.374215697260791	0	0	0
-63.421917463175134	-21.088724406898471	0	0	0
-62.763772274775832	-21.580144571632914	0	0	0
-61.963611007946874	-21.765592177122596	0	0	0
-45.34132099301663	-14.704662396390878	0	0	0
-41.574578963006942	-17.220754456428612	0	0	0
-42.458922037609042	-21.663389046628094	0	0	0
-59.205487355514627	-28.424291705549628	0	0	0
-59.640155553935742	-29.121222422763811	0	0	0
-59.758047948762659	-29.934087879381885	0	0	0
-59.539280547335622	-30.725788385500312	0	0	0
-56.378953566799076	-36.199635284246504	0	0	0
-55.802704517040766	-36.784943664502634	0	0	0
-55.039796184337384	-37.089278583978576	0	0	0
-54.218902379341763	-37.061310240535867	0	0	0
-39.990506265237933	-25.938810578630832	0	0	0
-35.70090031310383	-27.394264305391083	0	0	0
-35.405271685783752	-31.914404622996884	0	0	0
-49.831361257703705	-42.779265154475127	0	0	0
-50.070839553693204	-43.564948941418223	0	0	0
-49.974329801300897	-44.3806294763178	0	0	0
-49.558109549311652	-45.088732271926808	0	0	0
-45.088732271994488	-49.558109549336223	0	0	0
-44.380629476317843	-49.974329801301018	0	0	0
-43.564948941418209	-50.070839553693332	0	0	0
-42.779265154475077	-49.831361257703804	0	0	0
-31.914404622997214	-35.405271685783731	0	0	0
-27.394264305390493	-35.700900313103034	0	0	0
-25.938810578630953	-39.990506265237578	0	0	0
-37.061310240536017	-54.218902379341721	0	0	0
-37.089278583978846	-55.039796184337433	0	0	0
-36.784943664502926	-55.802704517040958	0	0	0
-36.199635284288014	-56.378953566814978	0	0	0
-30.725788385507162	-59.539280547286801	0	0	0
-29.93408787938187	-59.758047948762439	0	0	0
-29.121222422763879	-59.64015555393555	0	0	0
-28.424291705549752	-59.205487355514499	0	0	0
-21.663389046628424	-42.458922037609106	0	0	0
-17.2207544564275	-41.574578963004221	0	0	0
-14.704662396391088	-45.341320993016318	0	0	0
-21.765592177122688	-61.963611007946874	0	0	0
-21.580144571633063	-62.763772274775903	0	0	0
-21.088724406898585	-63.421917463175255	0	0	0
-20.374215697301835	-63.827042346668797	0	0	0
-14.268932797314035	-65.462947969253165	0	0	0
-13.447587661774511	-65.469353883215732	0	0	0
-12.69293272098302	-65.145093513050838	0	0	0
-12.132249750143455	-64.544857331597655	0	0	0
-9.9360493072329845	-46.619067019288103	0	0	0
-5.8736786499017359	-44.615018761817005	0	0	0
-2.4684157723714577	-47.602199625259175	0	0	0
-4.9865849761727894	-65.485601946085708	0	0	0
-4.6003593695982108	-66.21050100674266	0	0	0
-3.9553434317216243	-66.719031543884782	0	0	0
-3.1603269805205865	-66.925423669788302	0	0	0
3.1603269804893852	-66.925423669751709	0	0	0
3.9553434317215181	-66.719031543884569	0	0	0
4.6003593695981024	-66.210501006742575	0	0	0
4.9865849761727326	-65.485601946085694	0	0	0
2.4684157723711593	-47.602199625259431	0	0	0
5.8736786499017324	-44.615018761816813	0	0	0
9.936049307232679	-46.619067019287954	0	0	0
12.13224975014295	-64.544857331597967	0	0	0
12.692932720982558	-65.145093513051506	0	0	0
13.447587661774341	-65.46935388321657	0	0	0
14.268932797257198	-65.46294796922875	0	0	0
20.374215697259647	-63.827042346649037	0	0	0
21.088724406898656	-63.421917463175333	0	0	0
21.580144571633156	-62.763772274775945	0	0	0
21.765592177122752	-61.963611007946881	0	0	0
14.70466239639088	-45.34132099301663	0	0	0
17.220754456427333	-41.574578963003759	0	0	0
21.663389046628293	-42.458922037609078	0	0	0
28.42429170554971	-59.205487355514542	0	0	0
29.12122242276385	-59.640155553935635	0	0	0
29.934087879381877	-59.75804794876256	0	0	0
30.72578838550028	-59.539280547335558	0	0	0
36.199635284245311	-56.378953566797172	0	0	0
36.784943664502677	-55.802704517040794	0	0	0
37.089278583978604	-55.039796184337391	0	0	0
37.061310240535896	-54.218902379341756	0	0	0
25.938810578630857	-39.990506265237862	0	0	0
27.394264305390038	-35.700900313102466	0	0	0
31.914404622996884	-35.405271685783752	0	0	0
42.779265154475326	-49.831361257703335	0	0	0
43.564948941418251	-50.070839553692842	0	0	0
44.380629476317715	-49.974329801300648	0	0	0
45.088732271926716	-49.558109549311553	0	0	0
49.558109549335938	-45.088732271994154	0	0	0
49.974329801301117	-44.380629476317878	0	0	0
50.070839553693439	-43.564948941418201	0	0	0
49.831361257703854	-42.779265154475041	0	0	0
35.405271685783731	-31.914404622997207	0	0	0
35.700900313103084	-27.394264305390532	0	0	0
39.990506265237585	-25.93881057863095	0	0	0
54.218902379341728	-37.061310240536017	0	0	0
55.039796184337433	-37.089278583978825	0	0	0
55.802704517040951	-36.784943664502919	0	0	0
56.378953566814992	-36.199635284288021	0	0	0
59.539280547288037	-30.725788385507734	0	0	0
59.758047948762538	-29.934087879381874	0	0	0
59.640155553935621	-29.121222422763854	0	0	0
59.205487355514549	-28.42429170554971	0	0	0
42.458922037609163	-21.663389046628719	0	0	0
41.574578963005962	-17.220754456428221	0	0	0
45.34132099301619	-14.704662396391175	0	0	0
61.963611007946874	-21.765592177122691	0	0	0
62.763772274775903	-21.58014457163306	0	0	0
63.421917463175248	-21.088724406898578	0	0	0
63.827042346668804	-20.374215697301839	0	0	0
65.462947969256192	-14.268932797314699	0	0	0
65.469353883216343	-13.447587661774385	0	0	0
65.145093513051322	-12.692932720982686	0	0	0
64.544857331597854	-12.132249750143128	0	0	0
46.619067019288103	-9.9360493072329827	0	0	0
44.615018761820522	-5.8736786499022013	0	0	0
47.602199625259175	-2.4684157723714568	0	0	0
65.485601946085708	-4.9865849761727885	0	0	0
66.21050100674266	-4.6003593695982117	0	0	0
66.719031543884782	-3.9553434317216252	0	0	0
66.925423669788287	-3.1603269805205882	0	0	0
66.925423669756313	3.1603269804895389	0	0	0
66.719031543884569	3.9553434317215186	0	0	0
66.210501006742575	4.6003593695981024	0	0	0
65.485601946085694	4.9865849761727326	0	0	0
47.602199625259438	2.4684157723711584	0	0	0
44.615018761821759	5.8736786499023586	0	0	0
46.619067019287904	9.936049307232576	0	0	0
64.544857331597925	12.132249750143014	0	0	0
65.145093513051435	12.692932720982599	0	0	0
65.469353883216527	13.447587661774349	0	0	0
65.462947969228722	14.26893279725719	0	0	0
63.827042346654473	20.374215697261356	0	0	0
63.421917463175383	21.088724406898695	0	0	0
62.763772274775967	21.580144571633205	0	0	0
61.963611007946881	21.765592177122855	0	0	0
45.341320993016687	14.704662396390839	0	0	0
41.57457896300928	17.22075445642961	0	0	0
42.458922037609028	21.663389046628033	0	0	0
59.205487355514542	28.424291705549713	0	0	0
59.640155553935628	29.12122242276385	0	0	0
59.75804794876256	29.934087879381877	0	0	0
59.539280547335558	30.72578838550028	0	0	0
56.378953566802558	36.199635284248764	0	0	0
55.802704517040908	36.784943664502848	0	0	0
55.039796184337419	37.089278583978768	0	0	0
54.218902379341735	37.061310240535974	0	0	0
39.990506265237862	25.938810578630857	0	0	0
35.700900313107645	27.394264305394014	0	0	0
35.405271685783745	31.914404622996884	0	0	0
49.831361257703712	42.779265154475127	0	0	0
50.070839553693226	43.564948941418223	0	0	0
49.974329801300904	44.380629476317807	0	0	0
49.558109549311652	45.088732271926816	0	0	0
45.088732271998666	49.55810954934082	0	0	0
44.380629476317871	49.97432980130111	0	0	0
43.564948941418201	50.070839553693439	0	0	0
42.779265154475034	49.831361257703882	0	0	0
31.914404622997179	35.405271685783731	0	0	0
27.394264305394572	35.70090031310837	0	0	0
25.93881057863095	39.990506265237585	0	0	0
37.061310240536017	54.218902379341728	0	0	0
37.089278583978825	55.039796184337433	0	0	0
36.784943664502919	55.802704517040951	0	0	0
36.199635284288021	56.378953566814992	0	0	0
30.725788385510736	59.539280547293785	0	0	0
29.934087879381877	59.758047948762552	0	0	0
29.121222422763847	59.640155553935635	0	0	0
28.424291705549702	59.205487355514556	0	0	0
21.663389046628719	42.458922037609163	0	0	0
17.220754456430654	41.574578963011795	0	0	0
14.704662396391177	45.341320993016183	0	0	0
21.765592177123029	61.963611007946881	0	0	0
21.580144571633358	62.763772274776038	0	0	0
21.088724406901353	63.421917463173116	0	0	0
20.374215697301878	63.827042346668932	0	0	0
14.268932797315944	65.462947969261904	0	0	0
13.447587661774387	65.469353883216343	0	0	0
12.692932720982693	65.145093513051307	0	0	0
12.132249750143137	64.544857331597854	0	0	0
9.936049307232981	46.619067019288103	0	0	0
5.8736786499029314	44.615018761826057	0	0	0
31.112698372210282	31.112698372210279	0	0	0
2.6942229581244647e-015	44.000000000004697	0	0	0
-31.112698372211028	31.112698372211032	0	0	0
-44.000000000002807	5.3884459162486976e-015	0	0	0
-31.112698372206516	-31.112698372206506	0	0	0
-8.0826688743718366e-015	-43.99999999999622	0	0	0
31.112698372205571	-31.112698372205585	0	0	0
43.999999999999673	-1.0776891832496628e-014	0	0	0
27.577164466278035	27.577164466278028	0	0	0
2.3880612583376273e-015	39.000000000004711	0	0	0
-27.57716446627828	27.577164466278283	0	0	0
-39.0000000000028	4.7761225166750202e-015	0	0	0
-27.577164466273761	-27.577164466273754	0	0	0
-7.1641837750113199e-015	-38.999999999996213	0	0	0
27.577164466272833	-27.577164466272848	0	0	0
38.99999999999968	-9.5522450333492769e-015	0	0	0
3.5355339059360644	3.535533905936064	0	0	0
3.061616997871264e-016	5.0000000000047047	0	0	0
-3.535533905936064	3.5355339059360644	0	0	0
-5.0000000000035598	8.724744850910266e-012	0	0	0
-3.5355339059329709	-3.5355339059329696	0	0	0
-9.1848509935994642e-016	-4.9999999999969056	0	0	0
3.5355339059302215	-3.5355339059302233	0	0	0
4.9999999999996714	8.7206874346555082e-012	0	0	0
[NumSegments] = 128
0	1	-1	0	0	0	0
2	3	-1	0	0	0	0
4	5	-1	0	0	0	0
6	7	-1	0	0	0	0
8	9	-1	0	0	0	0
10	11	-1	0	0	0	0
12	13	-1	0	0	0	0
14	15	-1	0	0	0	0
16	17	-1	0	0	0	0
18	19	-1	0	0	0	0
20	21	-1	0	0	0	0
22	23	-1	0	0	0	0
24	25	-1	0	0	0	0
26	27	-1	0	0	0	0
28	29	-1	0	0	0	0
30	31	-1	0	0	0	0
32	33	-1	0	0	0	0
34	35	-1	0	0	0	0
36	37	-1	0	0	0	0
38	39	-1	0	0	0	0
40	41	-1	0	0	0	0
42	43	-1	0	0	0	0
44	45	-1	0	0	0	0
46	47	-1	0	0	0	0
48	49	-1	0	0	0	0
50	51	-1	0	0	0	0
52	53	-1	0	0	0	0
54	55	-1	0	0	0	0
56	57	-1	0	0	0	0
58	59	-1	0	0	0	0
60	61	-1	0	0	0	0
62	63	-1	0	0	0	0
64	65	-1	0	0	0	0
66	67	-1	0	0	0	0
68	69	-1	0	0	0	0
70	71	-1	0	0	0	0
72	73	-1	0	0	0	0
74	75	-1	0	0	0	0
76	77	-1	0	0	0	0
78	79	-1	0	0	0	0
80	81	-1	0	0	0	0
82	83	-1	0	0	0	0
84	85	-1	0	0	0	0
86	87	-1	0	0	0	0
88	89	-1	0	0	0	0
90	91	-1	0	0	0	0
92	93	-1	0	0	0	0
94	95	-1	0	0	0	0
96	97	-1	0	0	0	0
98	99	-1	0	0	0	0
100	101	-1	0	0	0	0
102	103	-1	0	0	0	0
104	105	-1	0	0	0	0
106	107	-1	0	0	0	0
108	109	-1	0	0	0	0
110	111	-1	0	0	0	0
112	113	-1	0	0	0	0
114	115	-1	0	0	0	0
116	117	-1	0	0	0	0
118	119	-1	0	0	0	0
120	121	-1	0	0	0	0
122	123	-1	0	0	0	0
124	125	-1	0	0	0	0
126	127	-1	0	0	0	0
128	129	-1	0	0	0	0
130	131	-1	0	0	0	0
132	133	-1	0	0	0	0
134	135	-1	0	0	0	0
136	137	-1	0	0	0	0
138	139	-1	0	0	0	0
140	141	-1	0	0	0	0
142	143	-1	0	0	0	0
144	145	-1	0	0	0	0
146	147	-1	0	0	0	0
148	149	-1	0	0	0	0
150	151	-1	0	0	0	0
152	153	-1	0	0	0	0
154	155	-1	0	0	0	0
156	157	-1	0	0	0	0
158	159	-1	0	0	0	0
160	161	-1	0	0	0	0
162	163	-1	0	0	0	0
164	165	-1	0	0	0	0
166	167	-1	0	0	0	0
168	169	-1	0	0	0	0
170	171	-1	0	0	0	0
172	173	-1	0	0	0	0
174	175	-1	0	0	0	0
176	177	-1	0	0	0	0
178	179	-1	0	0	0	0
180	181	-1	0	0	0	0
182	183	-1	0	0	0	0
184	185	-1	0	0	0	0
186	187	-1	0	0	0	0
188	189	-1	0	0	0	0
190	191	-1	0	0	0	0
192	193	-1	0	0	0	0
194	195	-1	0	0	0	0
196	197	-1	0	0	0	0
198	199	-1	0	0	0	0
200	201	-1	0	0	0	0
202	203	-1	0	0	0	0
204	205	-1	0	0	0	0
206	207	-1	0	0	0	0
188	183	-1	0	0	0	0
12	7	-1	0	0	0	0
44	39	-1	0	0	0	0
60	55	-1	0	0	0	0
92	87	-1	0	0	0	0
140	135	-1	0	0	0	0
108	103	-1	0	0	0	0
180	175	-1	0	0	0	0
156	151	-1	0	0	0	0
36	31	-1	0	0	0	0
132	127	-1	0	0	0	0
84	79	-1	0	0	0	0
100	95	-1	0	0	0	0
52	47	-1	0	0	0	0
148	143	-1	0	0	0	0
4	191	-1	0	0	0	0
76	71	-1	0	0	0	0
172	167	-1	0	0	0	0
28	23	-1	0	0	0	0
124	119	-1	0	0	0	0
68	63	-1	0	0	0	0
116	111	-1	0	0	0	0
20	15	-1	0	0	0	0
164	159	-1	0	0	0	0
[NumArcSegments] = 448
208	209	15	5	0	0	0	0	1
209	210	15	5	0	0	0	0	1
210	211	15	5	0	0	0	0	1
211	212	15	5	0	0	0	0	1
212	213	15	5	0	0	0	0	1
213	214	15	5	0	0	0	0	1
214	215	15	5	0	0	0	0	1
215	216	15	5	0	0	0	0	1
216	217	15	5	0	0	0	0	1
217	218	15	5	0	0	0	0	1
218	219	15	5	0	0	0	0	1
219	220	15	5	0	0	0	0	1
220	221	15	5	0	0	0	0	1
221	222	15	5	0	0	0	0	1
222	223	15	5	0	0	0	0	1
223	224	15	5	0	0	0	0	1
224	225	15	5	0	0	0	0	1
225	226	15	5	0	0	0	0	1
226	227	15	5	0	0	0	0	1
227	228	15	5	0	0	0	0	1
228	229	15	5	0	0	0	0	1
229	230	15	5	0	0	0	0	1
230	231	15	5	0	0	0	0	1
231	208	15	5	0	0	0	0	1
191	232	33.75	5	0	0	0	0	1
232	0	33.75	5	0	0	0	0	1
1	233	23.699102198399999	5	0	0	0	0	1
233	234	23.699102198399999	5	0	0	0	0	1
234	235	23.6991021985	5	0	0	0	0	1
235	236	23.699102198399999	5	0	0	0	0	1
236	237	5.4071824126000081	5	0	0	0	0	1
237	238	23.699102198399999	5	0	0	0	0	1
238	239	23.6991021985	5	0	0	0	0	1
239	240	23.699102198399999	5	0	0	0	0	1
240	2	23.699102198399999	5	0	0	0	0	1
3	241	33.75	5	0	0	0	0	1
241	4	33.75	5	0	0	0	0	1
5	242	5.5897868283000065	5	0	0	0	0	1
242	6	5.5897868283000065	5	0	0	0	0	1
7	243	33.75	5	0	0	0	0	1
243	8	33.75	5	0	0	0	0	1
9	244	23.699102198399999	5	0	0	0	0	1
244	245	23.699102198399999	5	0	0	0	0	1
245	246	23.6991021985	5	0	0	0	0	1
246	247	23.699102198399999	5	0	0	0	0	1
247	248	5.4071824126000081	5	0	0	0	0	1
248	249	23.699102198399984	5	0	0	0	0	1
249	250	23.699102198500015	5	0	0	0	0	1
250	251	23.699102198399999	5	0	0	0	0	1
251	10	23.699102198399999	5	0	0	0	0	1
11	252	33.75	5	0	0	0	0	1
252	12	33.75	5	0	0	0	0	1
13	253	5.5897868283000065	5	0	0	0	0	1
253	14	5.5897868283000065	5	0	0	0	0	1
15	254	33.75	5	0	0	0	0	1
254	16	33.75	5	0	0	0	0	1
17	255	23.699102198399999	5	0	0	0	0	1
255	256	23.699102198399999	5	0	0	0	0	1
256	257	23.6991021985	5	0	0	0	0	1
257	258	23.699102198399999	5	0	0	0	0	1
258	259	5.4071824126000081	5	0	0	0	0	1
259	260	23.699102198399984	5	0	0	0	0	1
260	261	23.699102198500015	5	0	0	0	0	1
261	262	23.699102198399999	5	0	0	0	0	1
262	18	23.699102198399999	5	0	0	0	0	1
19	263	33.75	5	0	0	0	0	1
263	20	33.75	5	0	0	0	0	1
21	264	5.5897868283000065	5	0	0	0	0	1
264	22	5.5897868282999923	5	0	0	0	0	1
23	265	33.75	5	0	0	0	0	1
265	24	33.75	5	0	0	0	0	1
25	266	23.699102198399999	5	0	0	0	0	1
266	267	23.699102198399999	5	0	0	0	0	1
267	268	23.6991021985	5	0	0	0	0	1
268	269	23.699102198400013	5	0	0	0	0	1
269	270	5.4071824125999797	5	0	0	0	0	1
270	271	23.699102198399999	5	0	0	0	0	1
271	272	23.699102198500015	5	0	0	0	0	1
272	273	23.699102198399999	5	0	0	0	0	1
273	26	23.699102198399999	5	0	0	0	0	1
27	274	33.75	5	0	0	0	0	1
274	28	33.75	5	0	0	0	0	1
29	275	5.5897868282999923	5	0	0	0	0	1
275	30	5.5897868282999923	5	0	0	0	0	1
31	276	33.75	5	0	0	0	0	1
276	32	33.75	5	0	0	0	0	1
33	277	23.699102198399999	5	0	0	0	0	1
277	278	23.699102198399999	5	0	0	0	0	1
278	279	23.6991021985	5	0	0	0	0	1
279	280	23.699102198400013	5	0	0	0	0	1
280	281	5.4071824125999797	5	0	0	0	0	1
281	282	23.699102198399999	5	0	0	0	0	1
282	283	23.699102198500015	5	0	0	0	0	1
283	284	23.699102198399999	5	0	0	0	0	1
284	34	23.699102198399999	5	0	0	0	0	1
35	285	33.75	5	0	0	0	0	1
285	36	33.75	5	0	0	0	0	1
37	286	5.5897868282999923	5	0	0	0	0	1
286	38	5.5897868282999923	5	0	0	0	0	1
39	287	33.75	5	0	0	0	0	1
287	40	33.75	5	0	0	0	0	1
41	288	23.699102198399999	5	0	0	0	0	1
288	289	23.699102198399999	5	0	0	0	0	1
289	290	23.699102198500015	5	0	0	0	0	1
290	291	23.699102198399999	5	0	0	0	0	1
291	292	5.4071824125999797	5	0	0	0	0	1
292	293	23.699102198399999	5	0	0	0	0	1
293	294	23.699102198500015	5	0	0	0	0	1
294	295	23.699102198399999	5	0	0	0	0	1
295	42	23.699102198399999	5	0	0	0	0	1
43	296	33.75	5	0	0	0	0	1
296	44	33.75	5	0	0	0	0	1
45	297	5.5897868282999923	5	0	0	0	0	1
297	46	5.5897868282999923	5	0	0	0	0	1
47	298	33.75	5	0	0	0	0	1
298	48	33.75	5	0	0	0	0	1
49	299	23.699102198399999	5	0	0	0	0	1
299	300	23.699102198399999	5	0	0	0	0	1
300	301	23.699102198500015	5	0	0	0	0	1
301	302	23.699102198399999	5	0	0	0	0	1